<?xml version="1.0" encoding="UTF-8"?>

<!-- generated on 2026-06-08 16:14:37 by Eclipse SUMO netconvert Version v1_21_0+1815-57e42d61b7c
<netconvertConfiguration xmlns:xsi="http://www.w3.org/2001/XMLSchema-instance" xsi:noNamespaceSchemaLocation="http://sumo.dlr.de/xsd/netconvertConfiguration.xsd">

    <input>
        <osm-files value="faisal.osm"/>
    </input>

    <output>
        <output-file value="faisal.net.xml"/>
    </output>

    <projection>
        <proj.utm value="true"/>
    </projection>

</netconvertConfiguration>
-->

<net version="1.20" junctionCornerDetail="5" limitTurnSpeed="5.50" xmlns:xsi="http://www.w3.org/2001/XMLSchema-instance" xsi:noNamespaceSchemaLocation="http://sumo.dlr.de/xsd/net_file.xsd">

    <location netOffset="-318549.94,-3728942.10" convBoundary="0.00,0.00,5105.69,2805.97" origBoundary="73.042095,33.684988,73.097004,33.710522" projParameter="+proj=utm +zone=43 +ellps=WGS84 +datum=WGS84 +units=m +no_defs"/>

    <type id="highway.cycleway" priority="1" numLanes="1" speed="5.56" allow="bicycle" oneway="0" width="2.00"/>
    <type id="highway.footway" priority="1" numLanes="1" speed="2.78" allow="pedestrian" oneway="1" width="2.00"/>
    <type id="highway.path" priority="1" numLanes="1" speed="5.56" allow="pedestrian bicycle" oneway="0" width="2.00"/>
    <type id="highway.pedestrian" priority="1" numLanes="1" speed="2.78" allow="pedestrian" oneway="1" width="2.00"/>
    <type id="highway.primary" priority="12" numLanes="2" speed="27.78" disallow="tram rail_urban rail rail_electric rail_fast ship container cable_car subway aircraft wheelchair scooter drone" oneway="0"/>
    <type id="highway.primary_link" priority="7" numLanes="1" speed="22.22" disallow="tram rail_urban rail rail_electric rail_fast ship container cable_car subway aircraft wheelchair scooter drone" oneway="0"/>
    <type id="highway.residential" priority="3" numLanes="1" speed="13.89" disallow="tram rail_urban rail rail_electric rail_fast ship container cable_car subway aircraft wheelchair scooter drone" oneway="0"/>
    <type id="highway.secondary" priority="11" numLanes="1" speed="27.78" disallow="tram rail_urban rail rail_electric rail_fast ship container cable_car subway aircraft wheelchair scooter drone" oneway="0"/>
    <type id="highway.secondary_link" priority="6" numLanes="1" speed="22.22" disallow="tram rail_urban rail rail_electric rail_fast ship container cable_car subway aircraft wheelchair scooter drone" oneway="0"/>
    <type id="highway.service" priority="1" numLanes="1" speed="5.56" allow="pedestrian delivery bicycle" oneway="0"/>
    <type id="highway.tertiary" priority="10" numLanes="1" speed="22.22" disallow="tram rail_urban rail rail_electric rail_fast ship container cable_car subway aircraft wheelchair scooter drone" oneway="0"/>
    <type id="highway.tertiary_link" priority="5" numLanes="1" speed="22.22" disallow="tram rail_urban rail rail_electric rail_fast ship container cable_car subway aircraft wheelchair scooter drone" oneway="0"/>
    <type id="highway.trunk" priority="13" numLanes="2" speed="27.78" disallow="pedestrian bicycle tram rail_urban rail rail_electric rail_fast ship container cable_car subway aircraft wheelchair scooter drone" oneway="0"/>
    <type id="highway.trunk_link" priority="8" numLanes="1" speed="22.22" disallow="pedestrian bicycle tram rail_urban rail rail_electric rail_fast ship container cable_car subway aircraft wheelchair scooter drone" oneway="0"/>
    <type id="highway.unclassified" priority="4" numLanes="1" speed="13.89" disallow="tram rail_urban rail rail_electric rail_fast ship container cable_car subway aircraft wheelchair scooter drone" oneway="0"/>

    <edge id=":10210328672_0" function="internal">
        <lane id=":10210328672_0_0" index="0" disallow="tram rail_urban rail rail_electric rail_fast ship container cable_car subway aircraft wheelchair scooter drone" speed="16.67" length="8.13" shape="1562.36,1885.82 1566.66,1878.91"/>
        <lane id=":10210328672_0_1" index="1" disallow="tram rail_urban rail rail_electric rail_fast ship container cable_car subway aircraft wheelchair scooter drone" speed="16.67" length="8.13" shape="1565.08,1887.51 1569.38,1880.60"/>
        <lane id=":10210328672_0_2" index="2" disallow="tram rail_urban rail rail_electric rail_fast ship container cable_car subway aircraft wheelchair scooter drone" speed="16.67" length="8.13" shape="1567.79,1889.20 1572.09,1882.29"/>
    </edge>
    <edge id=":10210328672_3" function="internal">
        <lane id=":10210328672_3_0" index="0" disallow="tram rail_urban rail rail_electric rail_fast ship container cable_car subway aircraft wheelchair scooter drone" speed="10.61" length="8.08" shape="1567.79,1889.20 1569.21,1887.40 1570.60,1886.56 1572.28,1886.10 1574.61,1885.42"/>
    </edge>
    <edge id=":10210328673_0" function="internal">
        <lane id=":10210328673_0_0" index="0" disallow="tram rail_urban rail rail_electric rail_fast ship container cable_car subway aircraft wheelchair scooter drone" speed="10.90" length="8.91" shape="1598.97,1845.68 1597.78,1842.88 1596.30,1840.93 1595.46,1839.10 1596.19,1836.62"/>
        <lane id=":10210328673_0_1" index="1" disallow="tram rail_urban rail rail_electric rail_fast ship container cable_car subway aircraft wheelchair scooter drone" speed="9.60" length="8.91" shape="1598.97,1845.68 1598.37,1843.43 1597.95,1841.80 1598.03,1840.25 1598.94,1838.26"/>
    </edge>
    <edge id=":10210328673_2" function="internal">
        <lane id=":10210328673_2_0" index="0" disallow="tram rail_urban rail rail_electric rail_fast ship container cable_car subway aircraft wheelchair scooter drone" speed="16.67" length="7.84" shape="1589.41,1841.70 1593.45,1834.97"/>
        <lane id=":10210328673_2_1" index="1" disallow="tram rail_urban rail rail_electric rail_fast ship container cable_car subway aircraft wheelchair scooter drone" speed="16.67" length="7.84" shape="1592.16,1843.35 1596.19,1836.62"/>
        <lane id=":10210328673_2_2" index="2" disallow="tram rail_urban rail rail_electric rail_fast ship container cable_car subway aircraft wheelchair scooter drone" speed="16.67" length="7.84" shape="1594.90,1844.99 1598.94,1838.26"/>
    </edge>
    <edge id=":10210328679_0" function="internal">
        <lane id=":10210328679_0_0" index="0" disallow="tram rail_urban rail rail_electric rail_fast ship container cable_car subway aircraft wheelchair scooter drone" speed="22.22" length="11.18" shape="1649.30,1886.01 1643.65,1895.66"/>
    </edge>
    <edge id=":10210328679_1" function="internal">
        <lane id=":10210328679_1_0" index="0" disallow="tram rail_urban rail rail_electric rail_fast ship container cable_car subway aircraft wheelchair scooter drone" speed="7.85" length="2.27" shape="1649.30,1886.01 1647.69,1887.62"/>
    </edge>
    <edge id=":10210328679_2" function="internal">
        <lane id=":10210328679_2_0" index="0" disallow="tram rail_urban rail rail_electric rail_fast ship container cable_car subway aircraft wheelchair scooter drone" speed="3.65" length="1.44" shape="1649.30,1886.01 1648.00,1886.64"/>
    </edge>
    <edge id=":10210328679_6" function="internal">
        <lane id=":10210328679_6_0" index="0" disallow="tram rail_urban rail rail_electric rail_fast ship container cable_car subway aircraft wheelchair scooter drone" speed="7.85" length="9.62" shape="1647.69,1887.62 1645.33,1888.30 1642.21,1888.04 1638.35,1886.86"/>
    </edge>
    <edge id=":10210328679_7" function="internal">
        <lane id=":10210328679_7_0" index="0" disallow="tram rail_urban rail rail_electric rail_fast ship container cable_car subway aircraft wheelchair scooter drone" speed="3.65" length="3.23" shape="1648.00,1886.64 1647.10,1886.57 1646.62,1885.82 1646.55,1884.38"/>
    </edge>
    <edge id=":10210328679_3" function="internal">
        <lane id=":10210328679_3_0" index="0" disallow="tram rail_urban rail rail_electric rail_fast ship container cable_car subway aircraft wheelchair scooter drone" speed="6.20" length="9.05" shape="1640.88,1894.06 1641.82,1891.71 1641.71,1889.72 1640.55,1888.10 1638.35,1886.86"/>
    </edge>
    <edge id=":10210328679_4" function="internal">
        <lane id=":10210328679_4_0" index="0" disallow="tram rail_urban rail rail_electric rail_fast ship container cable_car subway aircraft wheelchair scooter drone" speed="22.22" length="11.22" shape="1640.88,1894.06 1646.55,1884.38"/>
    </edge>
    <edge id=":10210328679_5" function="internal">
        <lane id=":10210328679_5_0" index="0" disallow="tram rail_urban rail rail_electric rail_fast ship container cable_car subway aircraft wheelchair scooter drone" speed="3.65" length="1.44" shape="1640.88,1894.06 1642.17,1893.42"/>
    </edge>
    <edge id=":10210328679_8" function="internal">
        <lane id=":10210328679_8_0" index="0" disallow="tram rail_urban rail rail_electric rail_fast ship container cable_car subway aircraft wheelchair scooter drone" speed="3.65" length="3.23" shape="1642.17,1893.42 1643.07,1893.48 1643.56,1894.22 1643.65,1895.66"/>
    </edge>
    <edge id=":10210671684_0" function="internal">
        <lane id=":10210671684_0_0" index="0" disallow="tram rail_urban rail rail_electric rail_fast ship container cable_car subway aircraft wheelchair scooter drone" speed="22.22" length="11.21" shape="1642.23,1898.12 1636.63,1907.83"/>
    </edge>
    <edge id=":10210671684_1" function="internal">
        <lane id=":10210671684_1_0" index="0" disallow="tram rail_urban rail rail_electric rail_fast ship container cable_car subway aircraft wheelchair scooter drone" speed="3.65" length="1.44" shape="1642.23,1898.12 1640.94,1898.76"/>
    </edge>
    <edge id=":10210671684_6" function="internal">
        <lane id=":10210671684_6_0" index="0" disallow="tram rail_urban rail rail_electric rail_fast ship container cable_car subway aircraft wheelchair scooter drone" speed="3.65" length="3.23" shape="1640.94,1898.76 1640.04,1898.71 1639.55,1897.96 1639.46,1896.52"/>
    </edge>
    <edge id=":10210671684_2" function="internal">
        <lane id=":10210671684_2_0" index="0" disallow="tram rail_urban rail rail_electric rail_fast ship container cable_car subway aircraft wheelchair scooter drone" speed="6.37" length="9.04" shape="1631.86,1898.30 1634.11,1899.38 1636.13,1899.44 1637.91,1898.49 1639.46,1896.52"/>
    </edge>
    <edge id=":10210671684_3" function="internal">
        <lane id=":10210671684_3_0" index="0" disallow="tram rail_urban rail rail_electric rail_fast ship container cable_car subway aircraft wheelchair scooter drone" speed="7.52" length="11.79" shape="1631.86,1898.30 1634.94,1900.75 1636.76,1903.16 1637.32,1905.51 1636.63,1907.83"/>
    </edge>
    <edge id=":10210671684_4" function="internal">
        <lane id=":10210671684_4_0" index="0" disallow="tram rail_urban rail rail_electric rail_fast ship container cable_car subway aircraft wheelchair scooter drone" speed="22.22" length="11.21" shape="1633.86,1906.23 1639.46,1896.52"/>
    </edge>
    <edge id=":10210671684_5" function="internal">
        <lane id=":10210671684_5_0" index="0" disallow="tram rail_urban rail rail_electric rail_fast ship container cable_car subway aircraft wheelchair scooter drone" speed="3.65" length="1.44" shape="1633.86,1906.23 1635.15,1905.59"/>
    </edge>
    <edge id=":10210671684_7" function="internal">
        <lane id=":10210671684_7_0" index="0" disallow="tram rail_urban rail rail_electric rail_fast ship container cable_car subway aircraft wheelchair scooter drone" speed="3.65" length="3.23" shape="1635.15,1905.59 1636.04,1905.64 1636.53,1906.39 1636.63,1907.83"/>
    </edge>
    <edge id=":10234684692_0" function="internal">
        <lane id=":10234684692_0_0" index="0" disallow="tram rail_urban rail rail_electric rail_fast ship container cable_car subway aircraft wheelchair scooter drone" speed="16.67" length="8.08" shape="1610.64,1787.47 1606.51,1794.44"/>
        <lane id=":10234684692_0_1" index="1" disallow="tram rail_urban rail rail_electric rail_fast ship container cable_car subway aircraft wheelchair scooter drone" speed="16.67" length="8.08" shape="1607.87,1785.87 1603.75,1792.82"/>
        <lane id=":10234684692_0_2" index="2" disallow="tram rail_urban rail rail_electric rail_fast ship container cable_car subway aircraft wheelchair scooter drone" speed="16.67" length="8.08" shape="1605.10,1784.27 1601.00,1791.19"/>
    </edge>
    <edge id=":10234684692_3" function="internal">
        <lane id=":10234684692_3_0" index="0" disallow="tram rail_urban rail rail_electric rail_fast ship container cable_car subway aircraft wheelchair scooter drone" speed="10.20" length="8.00" shape="1605.10,1784.27 1603.75,1786.08 1602.40,1786.94 1600.73,1787.41 1598.43,1788.09"/>
    </edge>
    <edge id=":10600185481_0" function="internal">
        <lane id=":10600185481_0_0" index="0" disallow="tram rail_urban rail rail_electric rail_fast ship container cable_car subway aircraft wheelchair scooter drone" speed="3.65" length="4.67" shape="2823.96,1818.44 2824.57,1819.75 2824.50,1820.64 2823.75,1821.12 2822.31,1821.18"/>
    </edge>
    <edge id=":10759912148_0" function="internal">
        <lane id=":10759912148_0_0" index="0" allow="pedestrian delivery bicycle" speed="5.08" length="5.05" shape="2514.50,2206.87 2513.20,2206.36 2512.05,2206.38 2511.05,2206.92 2510.20,2207.99"/>
    </edge>
    <edge id=":10759912148_1" function="internal">
        <lane id=":10759912148_1_0" index="0" allow="pedestrian delivery bicycle" speed="6.85" length="10.23" shape="2514.50,2206.87 2512.27,2205.17 2511.13,2203.16 2511.09,2200.86 2512.13,2198.25"/>
    </edge>
    <edge id=":10759912148_2" function="internal">
        <lane id=":10759912148_2_0" index="0" allow="pedestrian delivery bicycle" speed="3.65" length="4.67" shape="2514.50,2206.87 2513.85,2205.59 2513.89,2204.69 2514.63,2204.19 2516.06,2204.08"/>
    </edge>
    <edge id=":10759912148_3" function="internal">
        <lane id=":10759912148_3_0" index="0" allow="pedestrian delivery bicycle" speed="5.03" length="5.02" shape="2514.90,2199.85 2514.39,2201.13 2514.41,2202.26 2514.97,2203.24 2516.06,2204.08"/>
    </edge>
    <edge id=":10759912148_4" function="internal">
        <lane id=":10759912148_4_0" index="0" disallow="tram rail_urban rail rail_electric rail_fast ship container cable_car subway aircraft wheelchair scooter drone" speed="13.89" length="9.40" shape="2514.90,2199.85 2510.20,2207.99"/>
    </edge>
    <edge id=":10759912148_5" function="internal">
        <lane id=":10759912148_5_0" index="0" disallow="tram rail_urban rail rail_electric rail_fast ship container cable_car subway aircraft wheelchair scooter drone" speed="13.89" length="9.40" shape="2507.43,2206.39 2512.13,2198.25"/>
    </edge>
    <edge id=":10759912148_6" function="internal">
        <lane id=":10759912148_6_0" index="0" allow="pedestrian delivery bicycle" speed="6.90" length="3.24" shape="2507.43,2206.39 2509.14,2204.22 2509.56,2203.99"/>
    </edge>
    <edge id=":10759912148_7" function="internal">
        <lane id=":10759912148_7_0" index="0" allow="pedestrian delivery bicycle" speed="6.90" length="6.93" shape="2509.56,2203.99 2511.15,2203.11 2513.46,2203.07 2516.06,2204.08"/>
    </edge>
    <edge id=":10767258594_0" function="internal">
        <lane id=":10767258594_0_0" index="0" allow="pedestrian delivery bicycle" speed="5.56" length="0.88" shape="2002.38,1406.52 2002.19,1406.35 2002.06,1406.22 2001.95,1406.08 2001.79,1405.88"/>
    </edge>
    <edge id=":10767258594_1" function="internal">
        <lane id=":10767258594_1_0" index="0" allow="pedestrian delivery bicycle" speed="5.56" length="0.29" shape="2004.35,1403.95 2004.40,1404.02 2004.44,1404.07 2004.48,1404.11 2004.54,1404.17"/>
    </edge>
    <edge id=":10769703073_0" function="internal">
        <lane id=":10769703073_0_0" index="0" allow="pedestrian delivery bicycle" speed="5.56" length="9.40" shape="656.85,1499.57 652.47,1507.89"/>
    </edge>
    <edge id=":10769703073_1" function="internal">
        <lane id=":10769703073_1_0" index="0" allow="pedestrian delivery bicycle" speed="5.56" length="10.31" shape="656.85,1499.57 655.19,1501.87 653.20,1503.06 650.88,1503.14 648.24,1502.11"/>
    </edge>
    <edge id=":10769703073_2" function="internal">
        <lane id=":10769703073_2_0" index="0" allow="pedestrian delivery bicycle" speed="3.65" length="4.67" shape="656.85,1499.57 655.58,1500.26 654.69,1500.24 654.17,1499.52 654.02,1498.08"/>
    </edge>
    <edge id=":10769703073_3" function="internal">
        <lane id=":10769703073_3_0" index="0" allow="pedestrian delivery bicycle" speed="5.01" length="5.04" shape="649.81,1499.32 651.10,1499.82 652.23,1499.78 653.20,1499.20 654.02,1498.08"/>
    </edge>
    <edge id=":10769703073_4" function="internal">
        <lane id=":10769703073_4_0" index="0" allow="pedestrian delivery bicycle" speed="5.56" length="10.17" shape="649.81,1499.32 652.05,1501.03 653.24,1503.02 653.38,1505.31 652.47,1507.89"/>
    </edge>
    <edge id=":10769703073_5" function="internal">
        <lane id=":10769703073_5_0" index="0" allow="pedestrian delivery bicycle" speed="3.65" length="4.67" shape="649.81,1499.32 650.46,1500.61 650.42,1501.50 649.68,1502.00 648.24,1502.11"/>
    </edge>
    <edge id=":10769703073_6" function="internal">
        <lane id=":10769703073_6_0" index="0" allow="pedestrian delivery bicycle" speed="5.14" length="5.12" shape="649.64,1506.40 650.09,1505.12 650.00,1503.98 649.38,1502.97 648.24,1502.11"/>
    </edge>
    <edge id=":10769703073_7" function="internal">
        <lane id=":10769703073_7_0" index="0" allow="pedestrian delivery bicycle" speed="5.56" length="9.40" shape="649.64,1506.40 654.02,1498.08"/>
    </edge>
    <edge id=":10769703073_8" function="internal">
        <lane id=":10769703073_8_0" index="0" allow="pedestrian delivery bicycle" speed="3.65" length="4.67" shape="649.64,1506.40 650.91,1505.71 651.80,1505.73 652.32,1506.46 652.47,1507.89"/>
    </edge>
    <edge id=":10769703074_0" function="internal">
        <lane id=":10769703074_0_0" index="0" allow="pedestrian delivery bicycle" speed="5.08" length="5.04" shape="618.26,1485.19 616.96,1484.67 615.82,1484.69 614.82,1485.23 613.97,1486.30"/>
    </edge>
    <edge id=":10769703074_1" function="internal">
        <lane id=":10769703074_1_0" index="0" allow="pedestrian delivery bicycle" speed="5.56" length="10.22" shape="618.26,1485.19 616.04,1483.48 614.91,1481.47 614.87,1479.16 615.92,1476.56"/>
    </edge>
    <edge id=":10769703074_2" function="internal">
        <lane id=":10769703074_2_0" index="0" allow="pedestrian delivery bicycle" speed="3.65" length="4.67" shape="618.26,1485.19 617.61,1483.90 617.66,1483.01 618.40,1482.51 619.84,1482.40"/>
    </edge>
    <edge id=":10769703074_3" function="internal">
        <lane id=":10769703074_3_0" index="0" allow="pedestrian delivery bicycle" speed="5.03" length="5.01" shape="618.68,1478.17 618.17,1479.44 618.19,1480.58 618.74,1481.56 619.84,1482.40"/>
    </edge>
    <edge id=":10769703074_4" function="internal">
        <lane id=":10769703074_4_0" index="0" allow="pedestrian delivery bicycle" speed="5.56" length="9.40" shape="618.68,1478.17 613.97,1486.30"/>
    </edge>
    <edge id=":10769703074_5" function="internal">
        <lane id=":10769703074_5_0" index="0" allow="pedestrian delivery bicycle" speed="3.65" length="4.67" shape="618.68,1478.17 617.39,1478.81 616.50,1478.75 616.01,1478.00 615.92,1476.56"/>
    </edge>
    <edge id=":10769703074_6" function="internal">
        <lane id=":10769703074_6_0" index="0" allow="pedestrian delivery bicycle" speed="5.56" length="9.40" shape="611.20,1484.70 615.92,1476.56"/>
    </edge>
    <edge id=":10769703074_7" function="internal">
        <lane id=":10769703074_7_0" index="0" allow="pedestrian delivery bicycle" speed="5.56" length="10.17" shape="611.20,1484.70 612.91,1482.53 614.92,1481.42 617.23,1481.38 619.84,1482.40"/>
    </edge>
    <edge id=":10769703074_8" function="internal">
        <lane id=":10769703074_8_0" index="0" allow="pedestrian delivery bicycle" speed="3.65" length="4.67" shape="611.20,1484.70 612.49,1484.06 613.39,1484.12 613.88,1484.86 613.97,1486.30"/>
    </edge>
    <edge id=":10769703075_0" function="internal">
        <lane id=":10769703075_0_0" index="0" allow="pedestrian delivery bicycle" speed="5.56" length="9.41" shape="649.52,1513.51 645.14,1521.83"/>
    </edge>
    <edge id=":10769703075_1" function="internal">
        <lane id=":10769703075_1_0" index="0" allow="pedestrian delivery bicycle" speed="5.56" length="10.35" shape="649.52,1513.51 647.85,1515.82 645.85,1517.01 643.53,1517.07 640.88,1516.01"/>
    </edge>
    <edge id=":10769703075_2" function="internal">
        <lane id=":10769703075_2_0" index="0" allow="pedestrian delivery bicycle" speed="3.65" length="4.67" shape="649.52,1513.51 648.26,1514.20 647.36,1514.18 646.84,1513.45 646.69,1512.02"/>
    </edge>
    <edge id=":10769703075_3" function="internal">
        <lane id=":10769703075_3_0" index="0" allow="pedestrian delivery bicycle" speed="5.00" length="5.05" shape="642.48,1513.24 643.77,1513.76 644.90,1513.72 645.88,1513.14 646.69,1512.02"/>
    </edge>
    <edge id=":10769703075_4" function="internal">
        <lane id=":10769703075_4_0" index="0" allow="pedestrian delivery bicycle" speed="5.56" length="10.17" shape="642.48,1513.24 644.71,1514.97 645.90,1516.98 646.05,1519.26 645.14,1521.83"/>
    </edge>
    <edge id=":10769703075_5" function="internal">
        <lane id=":10769703075_5_0" index="0" allow="pedestrian delivery bicycle" speed="3.65" length="4.67" shape="642.48,1513.24 643.12,1514.53 643.07,1515.43 642.32,1515.92 640.88,1516.01"/>
    </edge>
    <edge id=":10769703075_6" function="internal">
        <lane id=":10769703075_6_0" index="0" allow="pedestrian delivery bicycle" speed="5.17" length="5.15" shape="642.31,1520.34 642.75,1519.06 642.66,1517.92 642.04,1516.90 640.88,1516.01"/>
    </edge>
    <edge id=":10769703075_7" function="internal">
        <lane id=":10769703075_7_0" index="0" allow="pedestrian delivery bicycle" speed="5.56" length="9.41" shape="642.31,1520.34 646.69,1512.02"/>
    </edge>
    <edge id=":10769703075_8" function="internal">
        <lane id=":10769703075_8_0" index="0" allow="pedestrian delivery bicycle" speed="3.65" length="4.67" shape="642.31,1520.34 643.58,1519.65 644.47,1519.67 645.00,1520.40 645.14,1521.83"/>
    </edge>
    <edge id=":10769703076_0" function="internal">
        <lane id=":10769703076_0_0" index="0" allow="pedestrian delivery bicycle" speed="5.05" length="5.01" shape="610.49,1498.52 609.21,1498.01 608.08,1498.03 607.09,1498.57 606.24,1499.65"/>
    </edge>
    <edge id=":10769703076_1" function="internal">
        <lane id=":10769703076_1_0" index="0" allow="pedestrian delivery bicycle" speed="5.56" length="10.17" shape="610.49,1498.52 608.30,1496.81 607.18,1494.80 607.14,1492.50 608.18,1489.91"/>
    </edge>
    <edge id=":10769703076_2" function="internal">
        <lane id=":10769703076_2_0" index="0" allow="pedestrian delivery bicycle" speed="3.65" length="4.67" shape="610.49,1498.52 609.85,1497.23 609.90,1496.34 610.65,1495.85 612.09,1495.75"/>
    </edge>
    <edge id=":10769703076_3" function="internal">
        <lane id=":10769703076_3_0" index="0" allow="pedestrian delivery bicycle" speed="5.04" length="5.00" shape="610.95,1491.52 610.44,1492.79 610.46,1493.92 611.01,1494.91 612.09,1495.75"/>
    </edge>
    <edge id=":10769703076_4" function="internal">
        <lane id=":10769703076_4_0" index="0" allow="pedestrian delivery bicycle" speed="5.56" length="9.40" shape="610.95,1491.52 606.24,1499.65"/>
    </edge>
    <edge id=":10769703076_5" function="internal">
        <lane id=":10769703076_5_0" index="0" allow="pedestrian delivery bicycle" speed="3.65" length="4.67" shape="610.95,1491.52 609.66,1492.15 608.77,1492.10 608.27,1491.35 608.18,1489.91"/>
    </edge>
    <edge id=":10769703076_6" function="internal">
        <lane id=":10769703076_6_0" index="0" allow="pedestrian delivery bicycle" speed="5.56" length="9.39" shape="603.47,1498.04 608.18,1489.91"/>
    </edge>
    <edge id=":10769703076_7" function="internal">
        <lane id=":10769703076_7_0" index="0" allow="pedestrian delivery bicycle" speed="5.56" length="10.16" shape="603.47,1498.04 605.19,1495.86 607.20,1494.75 609.50,1494.71 612.09,1495.75"/>
    </edge>
    <edge id=":10769703076_8" function="internal">
        <lane id=":10769703076_8_0" index="0" allow="pedestrian delivery bicycle" speed="3.65" length="4.67" shape="603.47,1498.04 604.77,1497.40 605.66,1497.46 606.15,1498.21 606.24,1499.65"/>
    </edge>
    <edge id=":10769703077_0" function="internal">
        <lane id=":10769703077_0_0" index="0" allow="pedestrian delivery bicycle" speed="4.54" length="3.64" shape="731.52,1453.38 730.83,1453.45 730.15,1454.09 729.54,1454.98 729.06,1455.78"/>
    </edge>
    <edge id=":10769703077_1" function="internal">
        <lane id=":10769703077_1_0" index="0" allow="pedestrian delivery bicycle" speed="5.56" length="7.20" shape="731.52,1453.38 725.23,1449.88"/>
    </edge>
    <edge id=":10769703077_2" function="internal">
        <lane id=":10769703077_2_0" index="0" allow="pedestrian delivery bicycle" speed="3.65" length="4.67" shape="731.52,1453.38 730.81,1452.13 730.82,1451.23 731.54,1450.70 732.97,1450.53"/>
    </edge>
    <edge id=":10769703077_3" function="internal">
        <lane id=":10769703077_3_0" index="0" allow="pedestrian delivery bicycle" speed="5.56" length="7.01" shape="726.84,1447.11 732.97,1450.53"/>
    </edge>
    <edge id=":10769703077_4" function="internal">
        <lane id=":10769703077_4_0" index="0" allow="pedestrian delivery bicycle" speed="5.56" length="10.22" shape="726.84,1447.11 729.04,1448.86 730.15,1450.88 730.15,1453.19 729.06,1455.78"/>
    </edge>
    <edge id=":10769703077_5" function="internal">
        <lane id=":10769703077_5_0" index="0" allow="pedestrian delivery bicycle" speed="3.65" length="4.67" shape="726.84,1447.11 727.48,1448.41 727.42,1449.30 726.67,1449.79 725.23,1449.88"/>
    </edge>
    <edge id=":10769703077_6" function="internal">
        <lane id=":10769703077_6_0" index="0" allow="pedestrian delivery bicycle" speed="5.03" length="5.02" shape="726.32,1454.13 726.85,1452.86 726.85,1451.73 726.31,1450.73 725.23,1449.88"/>
    </edge>
    <edge id=":10769703077_7" function="internal">
        <lane id=":10769703077_7_0" index="0" allow="pedestrian delivery bicycle" speed="5.56" length="8.37" shape="726.32,1454.13 727.94,1451.90 729.59,1450.56 731.26,1450.10 732.97,1450.53"/>
    </edge>
    <edge id=":10769703077_8" function="internal">
        <lane id=":10769703077_8_0" index="0" allow="pedestrian delivery bicycle" speed="3.65" length="4.67" shape="726.32,1454.13 727.62,1453.51 728.51,1453.58 728.99,1454.33 729.06,1455.78"/>
    </edge>
    <edge id=":10769703078_0" function="internal">
        <lane id=":10769703078_0_0" index="0" allow="pedestrian delivery bicycle" speed="5.56" length="7.81" shape="700.98,1508.45 694.30,1504.42"/>
    </edge>
    <edge id=":10769703078_1" function="internal">
        <lane id=":10769703078_1_0" index="0" allow="pedestrian delivery bicycle" speed="5.56" length="10.14" shape="700.98,1508.45 698.84,1506.69 697.77,1504.66 697.78,1502.36 698.86,1499.80"/>
    </edge>
    <edge id=":10769703078_2" function="internal">
        <lane id=":10769703078_2_0" index="0" allow="pedestrian delivery bicycle" speed="3.65" length="4.67" shape="700.98,1508.45 700.37,1507.14 700.45,1506.25 701.21,1505.77 702.65,1505.71"/>
    </edge>
    <edge id=":10769703078_3" function="internal">
        <lane id=":10769703078_3_0" index="0" allow="pedestrian delivery bicycle" speed="5.05" length="5.00" shape="701.60,1501.45 701.07,1502.71 701.06,1503.85 701.59,1504.85 702.65,1505.71"/>
    </edge>
    <edge id=":10769703078_4" function="internal">
        <lane id=":10769703078_4_0" index="0" allow="pedestrian delivery bicycle" speed="5.56" length="8.92" shape="701.60,1501.45 699.93,1503.66 698.16,1504.89 696.28,1505.14 694.30,1504.42"/>
    </edge>
    <edge id=":10769703078_5" function="internal">
        <lane id=":10769703078_5_0" index="0" allow="pedestrian delivery bicycle" speed="3.65" length="4.67" shape="701.60,1501.45 700.30,1502.07 699.41,1502.00 698.93,1501.24 698.86,1499.80"/>
    </edge>
    <edge id=":10769703078_6" function="internal">
        <lane id=":10769703078_6_0" index="0" allow="pedestrian delivery bicycle" speed="4.53" length="3.82" shape="695.94,1501.67 696.62,1501.85 697.33,1501.60 698.08,1500.92 698.86,1499.80"/>
    </edge>
    <edge id=":10769703078_7" function="internal">
        <lane id=":10769703078_7_0" index="0" allow="pedestrian delivery bicycle" speed="5.56" length="7.83" shape="695.94,1501.67 702.65,1505.71"/>
    </edge>
    <edge id=":10769703078_8" function="internal">
        <lane id=":10769703078_8_0" index="0" allow="pedestrian delivery bicycle" speed="3.65" length="4.67" shape="695.94,1501.67 696.56,1502.97 696.50,1503.86 695.74,1504.34 694.30,1504.42"/>
    </edge>
    <edge id=":10769703079_0" function="internal">
        <lane id=":10769703079_0_0" index="0" allow="pedestrian delivery bicycle" speed="5.56" length="3.53" shape="838.89,1268.35 835.86,1266.54"/>
    </edge>
    <edge id=":10769703079_1" function="internal">
        <lane id=":10769703079_1_0" index="0" allow="pedestrian delivery bicycle" speed="3.65" length="4.67" shape="838.89,1268.35 838.27,1267.05 838.33,1266.15 839.09,1265.67 840.53,1265.59"/>
    </edge>
    <edge id=":10769703079_2" function="internal">
        <lane id=":10769703079_2_0" index="0" allow="pedestrian delivery bicycle" speed="5.10" length="5.04" shape="839.43,1261.29 838.92,1262.59 838.94,1263.74 839.47,1264.74 840.53,1265.59"/>
    </edge>
    <edge id=":10769703079_3" function="internal">