<?xml version="1.0" encoding="UTF-8"?>

<!-- generated on 2025-05-03 19:50:07 by Eclipse SUMO polyconvert Version v1_21_0+1815-57e42d61b7c
<polyconvertConfiguration xmlns:xsi="http://www.w3.org/2001/XMLSchema-instance" xsi:noNamespaceSchemaLocation="http://sumo.dlr.de/xsd/polyconvertConfiguration.xsd">

    <input>
        <net-file value="faisal.net.xml"/>
        <osm-files value="faisal.osm"/>
    </input>

    <output>
        <output-file value="faisal.poly.xml"/>
    </output>

</polyconvertConfiguration>
-->

<additional xmlns:xsi="http://www.w3.org/2001/XMLSchema-instance" xsi:noNamespaceSchemaLocation="http://sumo.dlr.de/xsd/additional_file.xsd">
    <location netOffset="-318549.94,-3728942.10" convBoundary="-0.00,-2084.05,6308.32,3017.89" origBoundary="73.042095,33.666856,73.110273,33.713088" projParameter="+proj=utm +zone=43 +ellps=WGS84 +datum=WGS84 +units=m +no_defs"/>

    <poly id="10150534" type="landuse" color="194,194,130" fill="1" layer="-3.00" shape="465.724412,1526.595814 814.803142,962.285299 1008.047336,1079.848814 903.678716,1257.230907 668.590216,1648.718243 465.724412,1526.595814"/>
    <poly id="1154989312" type="building" color="255,230,230" fill="1" layer="-1.00" shape="1510.020370,1203.419693 1526.319279,1214.118078 1516.779197,1228.508437 1500.480300,1217.810068 1510.020370,1203.419693"/>
    <poly id="1190814331" type="building" color="255,230,230" fill="1" layer="-1.00" shape="2164.561647,1540.780698 2138.856651,1528.327302 2137.835113,1524.286189 2133.395750,1521.928803 2150.598846,1490.400073 2171.425305,1513.672435 2164.561647,1540.780698"/>
    <poly id="1190814332" type="amenity" color="237,199,199" fill="1" layer="-1.00" shape="2114.593869,1509.712173 2120.053944,1500.235729 2122.586402,1495.839567 2135.786313,1503.035963 2128.393154,1516.730919 2114.593869,1509.712173"/>
    <poly id="1190814332#1" type="building" color="255,230,230" fill="1" layer="-1.00" shape="2114.593869,1509.712173 2120.053944,1500.235729 2122.586402,1495.839567 2135.786313,1503.035963 2128.393154,1516.730919 2114.593869,1509.712173"/>
    <poly id="1211654151" type="building" color="255,230,230" fill="1" layer="-1.00" shape="985.630774,1500.489133 1010.453841,1486.242574 1005.891451,1478.363359 998.204046,1482.768326 993.699143,1474.987874 984.920192,1480.023594 989.223750,1487.452842 980.857749,1492.258903 985.630774,1500.489133"/>
    <poly id="1211654152" type="building" color="255,230,230" fill="1" layer="-1.00" shape="953.890844,1481.829253 978.713919,1467.582612 974.151494,1459.703410 966.464296,1464.119493 961.959150,1456.327965 953.180195,1461.363714 957.483995,1468.804038 949.117782,1473.599038 953.890844,1481.829253"/>
    <poly id="1211654153" type="building" color="255,230,230" fill="1" layer="-1.00" shape="896.191795,1449.159883 921.014883,1434.913094 916.452396,1427.033917 908.765194,1431.450046 904.259986,1423.658543 895.481027,1428.694344 899.784886,1436.134645 891.427938,1440.929519 896.191795,1449.159883"/>
    <poly id="1211654154" type="building" color="255,230,230" fill="1" layer="-1.00" shape="848.918659,1429.462240 854.464981,1420.194155 849.129133,1417.033330 843.592083,1426.301244 848.918659,1429.462240"/>
    <poly id="1211654155" type="building" color="255,230,230" fill="1" layer="-1.00" shape="960.277804,1530.387857 985.100756,1516.141227 980.538357,1508.262023 972.851196,1512.678102 968.346075,1504.886572 959.567164,1509.922317 963.870940,1517.362643 955.504769,1522.157639 960.277804,1530.387857"/>
    <poly id="1211654156" type="building" color="255,230,230" fill="1" layer="-1.00" shape="931.248640,1514.350493 956.071597,1500.103788 951.509167,1492.224596 943.822005,1496.640699 939.316853,1488.849181 930.537940,1493.884952 934.841746,1501.325267 926.475573,1506.120288 931.248640,1514.350493"/>
    <poly id="1211654157" type="building" color="255,230,230" fill="1" layer="-1.00" shape="902.189031,1496.705201 927.011997,1482.458421 922.449535,1474.579242 914.762161,1478.984278 910.257186,1471.203862 901.478270,1476.239660 905.782106,1483.679963 897.415930,1488.475009 902.189031,1496.705201"/>
    <poly id="1211654158" type="building" color="255,230,230" fill="1" layer="-1.00" shape="872.619347,1478.570402 897.451592,1464.323371 892.889097,1456.444205 885.201930,1460.860354 880.687444,1453.069036 871.908525,1458.104861 876.212391,1465.545152 867.855481,1470.340049 872.619347,1478.570402"/>
    <poly id="1211654159" type="building" color="255,230,230" fill="1" layer="-1.00" shape="845.659606,1463.126561 870.482588,1448.879636 865.920064,1441.000481 858.232685,1445.405562 853.727650,1437.625171 844.948728,1442.661021 849.252413,1450.090211 840.886441,1454.896396 845.659606,1463.126561"/>
    <poly id="1211654160" type="building" color="255,230,230" fill="1" layer="-1.00" shape="867.185266,1488.379951 847.079015,1499.021150 853.047969,1510.179667 873.145142,1499.549745 867.185266,1488.379951"/>
    <poly id="1211654161" type="building" color="255,230,230" fill="1" layer="-1.00" shape="896.599420,1505.153143 875.758747,1516.185329 881.977869,1527.827262 902.818731,1516.806179 896.599420,1505.153143"/>
    <poly id="1211654162" type="building" color="255,230,230" fill="1" layer="-1.00" shape="926.032091,1522.913409 904.658831,1534.221830 910.282073,1544.754562 931.655315,1533.446153 926.032091,1522.913409"/>
    <poly id="1211654163" type="building" color="255,230,230" fill="1" layer="-1.00" shape="954.459025,1539.960550 932.883734,1551.372564 938.843288,1562.531305 960.418559,1551.119304 954.459025,1539.960550"/>
    <poly id="1211654164" type="building" color="255,230,230" fill="1" layer="-1.00" shape="914.303800,1599.159788 935.778044,1587.805099 929.866310,1576.723113 908.392256,1588.088905 914.303800,1599.159788"/>
    <poly id="1211654165" type="building" color="255,230,230" fill="1" layer="-1.00" shape="891.326443,1585.404588 911.809031,1574.567777 905.955389,1563.617833 885.482052,1574.454480 891.326443,1585.404588"/>
    <poly id="1211654166" type="building" color="255,230,230" fill="1" layer="-1.00" shape="796.378541,1509.951613 809.251919,1517.474125 816.277754,1505.537776 803.404577,1498.026343 796.378541,1509.951613"/>
    <poly id="1211654173" type="building" color="255,230,230" fill="1" layer="-1.00" shape="794.307200,1827.947312 803.433544,1813.342057 782.183006,1800.175774 773.056678,1814.781050 794.307200,1827.947312"/>
    <poly id="1211654174" type="building" color="255,230,230" fill="1" layer="-1.00" shape="750.724550,1801.790575 771.421556,1814.612246 781.070198,1799.187263 760.363905,1786.365745 750.724550,1801.790575"/>
    <poly id="1211654175" type="building" color="255,230,230" fill="1" layer="-1.00" shape="728.771395,1788.249397 749.533973,1801.103067 758.588642,1786.632245 737.825838,1773.767465 728.771395,1788.249397"/>
    <poly id="1211654176" type="building" color="255,230,230" fill="1" layer="-1.00" shape="771.505449,1634.948120 790.648172,1644.992498 794.945775,1636.879502 790.047713,1634.309509 791.175636,1632.169312 800.634507,1637.127078 810.116200,1619.231400 784.923319,1606.006405 781.548187,1612.393553 777.904964,1610.476583 773.321008,1619.138586 784.418980,1624.963971 780.963156,1631.496862 774.988026,1628.359251 771.505449,1634.948120"/>
    <poly id="1211654177" type="building" color="255,230,230" fill="1" layer="-1.00" shape="753.551781,1668.712544 770.299193,1677.126974 772.981299,1671.851184 771.773636,1671.241651 776.770804,1661.384815 778.502569,1662.250700 781.006002,1657.333286 775.463973,1654.542494 780.085880,1645.436026 766.202871,1638.454033 758.621993,1653.396216 765.230980,1656.710438 761.324237,1664.405600 756.868324,1662.171177 753.551781,1668.712544"/>
    <poly id="1211654178" type="building" color="255,230,230" fill="1" layer="-1.00" shape="751.155451,1710.226077 753.794123,1705.106412 751.874675,1704.122047 756.848604,1694.509699 759.713664,1695.975421 762.737095,1690.116308 743.187001,1680.101871 738.204226,1689.736581 742.876465,1692.133314 740.022667,1697.645325 736.773797,1695.987171 733.964883,1701.420680 751.155451,1710.226077"/>
    <poly id="1211654179" type="building" color="255,230,230" fill="1" layer="-1.00" shape="713.301123,1733.073122 730.601578,1742.297964 742.032630,1721.092733 725.621727,1712.328093 721.635231,1719.725252 725.588080,1721.836036 721.628558,1729.188311 716.785924,1726.606215 713.301123,1733.073122"/>
    <poly id="1211654180" type="building" color="255,230,230" fill="1" layer="-1.00" shape="695.302924,1765.440718 710.590954,1774.159956 713.813797,1768.552211 711.882783,1767.446042 714.594052,1762.735460 712.635230,1761.629816 714.583140,1758.231620 720.244742,1761.463864 724.060291,1754.835398 706.841226,1745.009971 702.621775,1752.344979 706.118125,1754.342349 701.584108,1762.204705 698.256489,1760.303992 695.302924,1765.440718"/>
    <poly id="1211654181" type="building" color="255,230,230" fill="1" layer="-1.00" shape="731.862603,1626.455847 758.947159,1611.699936 752.686609,1600.325106 725.602029,1615.081033 731.862603,1626.455847"/>
    <poly id="1211654182" type="building" color="255,230,230" fill="1" layer="-1.00" shape="711.672871,1660.140566 739.417979,1645.017113 732.975024,1633.312930 705.229680,1648.425311 711.672871,1660.140566"/>
    <poly id="1211654183" type="building" color="255,230,230" fill="1" layer="-1.00" shape="691.583362,1693.723602 719.034660,1678.760945 712.447632,1666.793247 684.996307,1681.755922 691.583362,1693.723602"/>
    <poly id="1211654184" type="building" color="255,230,230" fill="1" layer="-1.00" shape="672.411116,1745.416481 687.995781,1718.796612 678.714342,1713.414044 663.129693,1740.033929 672.411116,1745.416481"/>
    <poly id="1211654188" type="building" color="255,230,230" fill="1" layer="-1.00" shape="752.855732,1843.928594 758.948253,1847.396779 761.569761,1842.843217 755.477028,1839.363940 752.855732,1843.928594"/>
    <poly id="1211654189" type="building" color="255,230,230" fill="1" layer="-1.00" shape="676.805901,1931.852031 692.176488,1940.536385 696.798690,1932.439382 681.437155,1923.743755 676.805901,1931.852031"/>
    <poly id="1211654195" type="building" color="255,230,230" fill="1" layer="-1.00" shape="853.101277,1845.041928 852.404502,1842.514625 850.871364,1840.380297 848.701538,1838.901425 846.148427,1838.239630 843.529272,1838.499859 841.158384,1839.631805 839.311321,1841.497139 838.215829,1843.880780 838.014771,1846.491596 838.720818,1849.018724 840.244689,1851.153224 842.414514,1852.632094 844.967622,1853.293888 847.586772,1853.033659 849.967136,1851.912630 851.804721,1850.036384 852.900215,1847.652743 853.101277,1845.041928"/>
    <poly id="1211654196" type="building" color="255,230,230" fill="1" layer="-1.00" shape="757.967743,1975.148260 763.289451,1978.065225 761.819000,1980.722210 777.493624,1989.312199 792.386565,1962.406018 777.573870,1954.287846 773.422496,1961.787948 768.878271,1959.288946 765.803144,1964.860605 767.302088,1965.675413 765.831634,1968.332397 768.202011,1969.629963 766.489676,1972.735264 760.980493,1969.710902 757.967743,1975.148260"/>
    <poly id="1211654197" type="building" color="255,230,230" fill="1" layer="-1.00" shape="773.690828,1944.576538 776.266177,1940.034943 774.045145,1938.790024 776.844888,1933.855912 781.511922,1936.474628 776.146096,1945.950158 773.690828,1944.576538"/>
    <poly id="1211654199" type="building" color="255,230,230" fill="1" layer="-1.00" shape="745.037422,2007.775062 742.685868,2011.890879 746.256688,2013.909038 748.509637,2009.972585 752.389890,2012.173495 756.195240,2005.500853 770.600469,2013.648872 777.278026,2001.952005 772.948052,1999.504425 775.568890,1994.917595 758.464456,1985.245247 756.238465,1989.136813 744.851079,1982.695702 738.128876,1994.482185 746.254654,1999.076785 742.197741,2006.175745 745.037422,2007.775062"/>
    <poly id="1211654200" type="building" color="255,230,230" fill="1" layer="-1.00" shape="802.406225,2021.623591 796.386483,2031.821459 805.115458,2036.937211 802.015518,2042.176516 813.885137,2049.118893 809.356484,2056.770324 826.139054,2066.593049 833.102711,2054.824257 847.907137,2063.497345 844.313105,2069.577993 870.114982,2084.677506 873.726933,2078.563250 894.709742,2090.847253 887.818099,2102.503701 904.919200,2112.509135 911.262415,2101.761641 923.975901,2109.209622 921.729457,2113.001691 928.751911,2117.118042 930.665668,2113.875845 925.621524,2110.920275 936.358642,2092.745845 949.175120,2100.247384 951.170005,2096.881630 958.886087,2101.395381 956.621927,2105.232150 959.996974,2107.198610 958.155054,2110.317415 965.411722,2114.562496 968.044184,2110.097533 972.178783,2112.515602 963.822717,2126.662423 958.291175,2123.427597 959.351195,2121.621509 948.109900,2115.044292 939.978264,2128.798621 952.344772,2136.042405 947.906025,2143.547852 952.387535,2146.170145 947.194080,2154.954516 942.103200,2151.977633 939.758153,2155.949058 955.199918,2164.998549 957.482181,2161.139250 953.488093,2158.796193 958.384891,2150.505546 961.610158,2152.397177 964.592996,2147.337635 961.902113,2145.757636 964.292051,2141.707715 972.701928,2146.629943 971.138554,2149.277555 976.060706,2152.157793 978.774068,2147.558181 987.024691,2152.394677 985.057195,2155.737719 992.651257,2160.176140 991.025091,2162.935870 986.993520,2160.571319 984.666367,2164.509114 987.507213,2166.175038 981.702718,2175.991538 979.583932,2174.755740 977.804599,2177.751330 993.724225,2187.069205 995.404534,2184.230798 993.126301,2182.898162 998.975682,2173.003166 1002.013257,2174.776320 1004.421322,2170.703879 1000.380488,2168.339498 1002.294258,2165.097316 1010.394671,2169.836821 1011.805504,2167.458343 1016.793351,2170.381736 1015.167181,2173.141461 1022.620720,2177.504899 1020.536281,2181.038733 1017.508189,2179.276488 1015.567239,2182.552461 1017.967426,2183.960458 1011.965279,2194.113479 1009.602796,2192.738053 1007.653002,2196.036383 1024.284934,2205.762428 1026.369577,2202.239684 1024.381819,2201.067967 1030.536521,2190.645829 1033.292888,2192.257891 1035.350359,2188.768943 1032.500050,2187.092091 1034.171311,2184.264956 1040.199887,2187.801070 1042.095755,2184.592515 1046.595965,2187.225590 1050.486734,2180.651304 1046.173987,2178.125627 1048.258436,2174.591800 1041.967613,2170.916408 1043.450093,2168.403460 1047.247210,2170.628237 1050.382842,2165.310686 1047.101359,2163.386806 1048.781479,2160.537320 1052.053484,2162.450286 1053.006057,2160.845922 1062.990995,2166.692578 1068.391452,2157.571561 1059.512765,2152.369657 1063.618896,2145.414131 1058.715517,2142.544589 1060.297035,2139.874464 1066.728783,2143.647054 1068.454001,2140.730159 1072.457334,2143.073088 1076.428840,2136.353074 1072.341042,2133.956268 1074.173933,2130.848751 1067.789151,2127.108551 1069.910067,2123.540761 1073.341531,2125.550571 1075.561060,2121.803423 1074.558013,2121.223279 1081.773288,2109.017285 1066.903864,2100.322891 1063.911689,2105.382573 1066.049224,2106.629130 1061.628286,2114.100901 1058.046843,2112.005174 1055.656650,2116.043981 1058.225565,2117.548649 1055.233192,2122.597245 1043.776279,2115.890861 1045.923741,2112.256003 1038.329461,2107.806449 1040.117677,2104.788518 1043.558632,2106.809233 1045.041334,2104.307375 1042.312961,2102.705874 1050.076457,2089.579832 1037.616240,2082.282223 1034.776832,2087.083878 1035.508163,2087.513832 1030.889809,2095.333246 1027.711511,2093.473987 1026.049293,2096.289857 1029.190098,2098.127635 1026.889672,2102.009444 1020.655034,2098.366285 1019.046759,2101.092390 1012.258775,2097.115769 1014.325531,2093.626644 1002.559127,2086.737551 1000.609311,2090.035881 996.212256,2087.467440 999.536887,2081.846778 1002.912141,2083.824344 1005.607628,2079.258361 1003.169921,2077.828886 1004.427801,2075.697354 1006.968512,2077.180355 1012.548283,2067.734208 1010.063812,2066.283426 1013.424280,2060.595532 1017.352881,2062.906569 1019.455467,2059.350207 1003.516711,2050.010453 1001.594065,2053.274988 1004.350684,2054.898133 1000.972100,2060.608560 998.740602,2059.297226 990.438175,2073.343162 992.472725,2074.536179 988.896728,2080.594239 985.202775,2078.434098 986.200016,2076.740136 980.837177,2073.601957 973.379480,2086.223073 978.732837,2089.350333 980.017890,2087.185004 985.174299,2090.193953 975.631960,2106.337820 953.243078,2093.237059 972.210599,2061.128999 975.098240,2062.816226 971.845673,2068.324600 976.458437,2071.022085 979.091336,2066.579305 985.776143,2070.491289 994.249444,2056.164782 981.413992,2048.641353 999.725999,2017.655098 1013.039624,2025.457969 1018.673585,2015.933150 1005.378908,2008.152101 1008.371088,2003.092401 1001.872669,1999.232352 1016.533946,1974.760445 1011.780443,1971.976845 1007.781934,1978.741767 1004.031497,1976.538307 1001.174369,1981.384680 986.473398,1972.787062 994.326700,1959.503973 952.838915,1935.214978 936.413908,1963.015098 929.194610,1958.791513 924.836905,1966.173405 967.796592,1991.322000 963.591634,1998.445837 949.903198,1990.439322 947.710651,1994.141615 937.828678,1988.359685 937.896611,1987.537469 937.174091,1985.609707 935.672925,1984.184761 933.704426,1983.545194 931.641862,1983.817086 929.910973,1984.959120 928.850313,1986.731941 928.657309,1988.787918 929.389099,1990.715504 930.890475,1992.151539 932.858972,1992.791105 934.745635,1992.533627 934.592669,1992.780575 945.187235,1998.981710 942.608478,2003.345820 947.896382,2006.441020 944.149717,2012.790753 916.003778,1996.315284 908.321281,2009.306786 921.953698,2017.292112 920.309196,2020.063292 907.136397,2012.357730 884.089469,2051.354463 888.196100,2053.761931 884.781763,2059.539640 880.084500,2056.788324 881.477202,2054.432356 876.939180,2051.766784 908.477014,1998.398740 905.711302,1996.786886 903.518983,2000.500280 900.209188,1998.554792 902.563114,1994.561005 898.334502,1992.078175 897.247297,1993.918063 868.491621,1977.077049 865.866814,1975.562389 867.537232,1972.690866 865.559095,1971.541184 842.569417,1958.074812 843.890489,1955.853316 839.999503,1953.574916 830.969449,1968.855042 834.119604,1970.692585 835.215859,1968.841424 867.890397,1987.960227 865.491186,1992.010347 871.013566,1995.245297 872.181464,1993.259665 890.361038,2003.899252 888.025030,2007.859424 892.712836,2010.599830 897.951002,2001.725839 901.251318,2003.660411 874.430815,2049.051805 870.258669,2046.612298 882.621928,2025.678058 821.238785,1989.750731 808.210650,2011.806980 797.630401,2004.895725 791.356675,2014.410582 802.406225,2021.623591"/>
    <poly id="1211654201" type="building" color="255,230,230" fill="1" layer="-1.00" shape="894.405768,2076.708521 911.286247,2085.830637 914.602250,2079.755264 897.721555,2070.622053 894.405768,2076.708521"/>
    <poly id="1211654202" type="building" color="255,230,230" fill="1" layer="-1.00" shape="904.612613,2046.651618 912.378072,2033.636357 917.197714,2036.485222 909.432252,2049.500479 904.612613,2046.651618"/>
    <poly id="1211654203" type="building" color="255,230,230" fill="1" layer="-1.00" shape="917.442471,2076.473391 922.988615,2079.497139 925.777023,2074.452349 920.230668,2071.417509 917.442471,2076.473391"/>
    <poly id="1211654204" type="building" color="255,230,230" fill="1" layer="-1.00" shape="924.785651,2055.822550 936.170727,2062.152970 942.952551,2050.077075 931.576735,2043.746472 924.785651,2055.822550"/>
    <poly id="1211654205" type="building" color="255,230,230" fill="1" layer="-1.00" shape="926.198095,2081.533276 948.207086,2094.153024 962.699824,2069.118415 952.707755,2063.394020 940.998780,2083.628007 928.972572,2076.732811 926.198095,2081.533276"/>
    <poly id="1211654206" type="building" color="255,230,230" fill="1" layer="-1.00" shape="963.420633,2047.860385 972.946195,2052.939066 977.138579,2045.149848 967.603953,2040.082427 963.420633,2047.860385"/>
    <poly id="1211654207" type="building" color="255,230,230" fill="1" layer="-1.00" shape="958.689083,2056.558374 967.231162,2061.112015 970.285736,2055.429877 961.743654,2050.876232 958.689083,2056.558374"/>
    <poly id="1211654208" type="building" color="255,230,230" fill="1" layer="-1.00" shape="1006.688372,2152.766980 1016.939004,2158.442173 1015.306491,2161.357329 1021.743539,2164.919009 1023.088868,2162.508487 1033.311255,2168.162041 1037.257492,2161.087487 1035.280460,2159.993221 1037.953217,2155.205801 1040.183223,2156.439514 1042.299939,2152.649922 1034.260580,2148.197675 1032.448753,2151.437927 1015.779810,2142.211777 1013.994957,2145.407150 1011.558941,2144.066392 1006.688372,2152.766980"/>
    <poly id="1211654209" type="building" color="255,230,230" fill="1" layer="-1.00" shape="1021.958523,2132.077619 1042.622240,2143.192017 1040.489285,2147.103946 1043.692861,2148.829607 1045.834458,2144.884235 1044.757261,2144.305492 1046.567630,2140.987614 1049.340243,2142.477344 1054.510724,2132.961284 1043.176551,2126.862741 1044.628097,2124.183971 1038.417665,2120.839874 1037.055671,2123.350551 1029.037543,2119.042124 1021.958523,2132.077619"/>
    <poly id="1211654210" type="building" color="255,230,230" fill="1" layer="-1.00" shape="989.166538,2113.570705 1006.717696,2123.357042 1010.978927,2115.777319 1013.077928,2116.946935 1015.015754,2113.504616 1012.391845,2112.034278 1013.683450,2109.724612 1010.028890,2107.685750 1012.110414,2103.996658 1009.177286,2102.354654 1006.584598,2106.963072 991.198137,2098.389482 989.394954,2101.596298 994.351896,2104.353860 989.166538,2113.570705"/>
    <poly id="1211654211" type="building" color="255,230,230" fill="1" layer="-1.00" shape="972.603186,2129.602981 977.744239,2132.290497 976.392368,2134.845367 979.632616,2136.548129 981.897467,2132.256511 986.476743,2134.655101 984.122133,2139.103723 993.636443,2144.082788 995.256755,2141.012546 1001.381053,2144.214022 1002.634739,2141.860694 997.465474,2139.151510 999.453043,2135.397626 1002.206292,2136.843333 1005.858851,2129.929618 996.887560,2125.228732 994.523884,2129.688615 990.075834,2127.365201 992.734708,2122.333969 984.156875,2117.847545 978.731678,2128.111730 974.545869,2125.927593 972.603186,2129.602981"/>
    <poly id="1211654212" type="building" color="255,230,230" fill="1" layer="-1.00" shape="976.932850,1967.409116 974.730118,1966.640836 972.396032,1966.773623 970.300928,1967.778304 968.748171,1969.516029 967.973520,1971.705009 968.109940,1974.021018 969.123137,1976.120797 970.858323,1977.663362 948.677876,1964.813818 954.752390,1954.559558 976.932850,1967.409116"/>
    <poly id="1211654217" type="building" color="255,230,230" fill="1" layer="-1.00" shape="1020.543498,2027.568443 1025.142296,2019.693927 1020.023986,2016.739705 1015.434459,2024.614049 1020.543498,2027.568443"/>
    <poly id="1211654218" type="building" color="255,230,230" fill="1" layer="-1.00" shape="1015.972224,2034.444010 1018.522988,2030.069355 1013.882621,2027.383464 1011.331858,2031.758120 1015.972224,2034.444010"/>
    <poly id="1211654219" type="building" color="255,230,230" fill="1" layer="-1.00" shape="1040.993115,2036.168620 1038.429482,2035.928536 1035.947255,2036.563318 1033.832722,2038.012100 1032.332794,2040.092724 1031.646785,2042.557369 1031.852464,2045.105038 1032.916168,2047.425744 1034.712382,2049.255605 1037.032590,2050.354493 1039.587159,2050.605841 1042.069173,2049.959970 1044.192974,2048.511015 1045.683634,2046.430568 1046.369647,2043.965924 1046.173240,2041.418080 1045.109539,2039.097372 1043.304057,2037.267684 1040.993115,2036.168620"/>
    <poly id="1211654223" type="building" color="255,230,230" fill="1" layer="-1.00" shape="958.180132,2165.696684 972.384795,2174.048454 978.864139,2163.143126 964.659466,2154.791346 958.180132,2165.696684"/>
    <poly id="1211654224" type="building" color="255,230,230" fill="1" layer="-1.00" shape="919.605692,2143.926638 937.204834,2154.288815 947.521564,2136.932169 929.913135,2126.570146 919.605692,2143.926638"/>
    <poly id="1211654225" type="building" color="255,230,230" fill="1" layer="-1.00" shape="1118.064649,2260.028103 1127.946166,2266.298329 1135.052320,2255.192702 1125.180066,2248.922293 1118.064649,2260.028103"/>
    <poly id="1211654226" type="building" color="255,230,230" fill="1" layer="-1.00" shape="1132.627998,2284.470274 1141.740050,2290.255803 1150.953796,2275.860006 1141.841946,2270.085558 1132.627998,2284.470274"/>
    <poly id="1211654227" type="building" color="255,230,230" fill="1" layer="-1.00" shape="1116.527405,2269.963750 1124.785377,2275.199589 1129.189553,2268.316126 1120.931578,2263.080283 1116.527405,2269.963750"/>
    <poly id="1211654228" type="building" color="255,230,230" fill="1" layer="-1.00" shape="1092.989620,2249.007836 1103.208809,2255.482451 1109.315401,2245.948767 1099.096207,2239.474146 1092.989620,2249.007836"/>
    <poly id="1211654229" type="building" color="255,230,230" fill="1" layer="-1.00" shape="1050.801247,2215.024726 1059.021811,2220.239031 1062.255555,2215.208069 1054.025720,2209.993936 1050.801247,2215.024726"/>
    <poly id="1211654230" type="building" color="255,230,230" fill="1" layer="-1.00" shape="1054.441817,2225.173354 1057.071918,2221.074552 1049.442599,2216.237376 1046.812500,2220.336181 1054.441817,2225.173354"/>
    <poly id="1211654231" type="building" color="255,230,230" fill="1" layer="-1.00" shape="1042.986567,2249.518196 1056.469305,2228.452129 1044.635977,2220.954105 1031.153252,2242.020189 1042.986567,2249.518196"/>
    <poly id="1211654232" type="building" color="255,230,230" fill="1" layer="-1.00" shape="1107.108246,2301.492115 1085.520380,2339.684304 1091.011753,2342.764639 1112.599632,2304.572463 1107.108246,2301.492115"/>
    <poly id="1211654233" type="building" color="255,230,230" fill="1" layer="-1.00" shape="1095.607716,2304.260518 1079.277881,2333.156904 1085.312691,2336.537612 1101.642536,2307.641236 1095.607716,2304.260518"/>
    <poly id="1211654234" type="building" color="255,230,230" fill="1" layer="-1.00" shape="1029.529265,2258.658084 1067.309807,2282.617869 1072.290607,2274.847100 1034.500781,2250.887470 1029.529265,2258.658084"/>
    <poly id="1211654235" type="building" color="255,230,230" fill="1" layer="-1.00" shape="1029.491640,2302.867172 1037.693398,2308.070716 1057.165617,2277.661714 1048.954368,2272.447238 1029.491640,2302.867172"/>
    <poly id="1211654244" type="building" color="255,230,230" fill="1" layer="-1.00" shape="777.278229,2195.370845 781.872877,2198.090766 791.409085,2203.734842 796.069233,2206.486814 800.913612,2198.374565 796.356464,2195.676114 786.745473,2190.000164 782.122598,2187.258586 777.278229,2195.370845"/>
    <poly id="1211654248" type="building" color="255,230,230" fill="1" layer="-1.00" shape="778.736354,2153.775164 783.663120,2145.605883 771.471751,2138.314627 778.763303,2126.240064 784.596538,2129.735340 787.734348,2124.539686 782.763892,2121.560609 786.126511,2115.994616 790.627876,2118.683024 793.549737,2113.835356 799.307775,2117.276593 798.067016,2119.330175 819.092577,2131.912737 801.569225,2160.920911 798.671472,2159.189552 797.035044,2161.894043 790.742431,2158.130094 789.492830,2160.206033 778.736354,2153.775164"/>
    <poly id="1211654252" type="building" color="255,230,230" fill="1" layer="-1.00" shape="551.159413,2010.884956 601.724078,2040.003910 614.206481,2018.534538 639.770042,2033.260780 641.233908,2030.748116 651.536070,2036.677119 653.655393,2033.031603 643.381244,2027.113162 649.918933,2015.873682 632.801770,2006.024294 630.466914,2010.039982 621.701995,2004.991624 627.925119,1994.279480 645.323936,2004.312131 655.795024,1986.308799 588.515714,1947.554502 578.888928,1964.110857 592.041028,1971.683254 589.508973,1976.057680 580.275313,1970.740876 576.045751,1978.020677 567.936935,1973.348238 565.305659,1977.868766 572.355345,1981.939980 566.751693,1991.575451 576.772944,1997.354379 574.339086,2001.527266 561.055568,1993.868629 551.159413,2010.884956"/>
    <poly id="1211678641" type="building" color="255,230,230" fill="1" layer="-1.00" shape="871.438026,1972.051448 868.491621,1977.077049 865.866814,1975.562389 867.537232,1972.690866 865.559095,1971.541184 866.816334,1969.376365 865.509002,1963.976225 867.011477,1961.540527 868.370257,1959.351604 873.687373,1958.097484 878.330955,1960.949656 879.589842,1966.239775 878.015306,1968.787767 876.719315,1970.864567 871.438026,1972.051448"/>
    <poly id="1211678646" type="building" color="255,230,230" fill="1" layer="-1.00" shape="975.717320,1913.794041 977.826265,1914.996746 975.770421,1918.574421 993.634714,1928.720937 995.304132,1925.793990 997.038131,1926.781899 992.181383,1935.238164 1004.225203,1942.077646 1019.261786,1915.868056 1008.380057,1909.683348 1003.747901,1917.758184 1001.498462,1916.480468 1003.877120,1912.319838 985.703587,1902.001637 983.459156,1905.904584 981.040987,1904.530213 985.708952,1896.388127 974.705426,1890.139191 960.091162,1915.630890 971.085402,1921.879984 975.717320,1913.794041"/>
    <poly id="1211678647" type="building" color="255,230,230" fill="1" layer="-1.00" shape="1292.627705,1846.072896 1290.086034,1850.447295 1333.797403,1875.660999 1336.348355,1871.286437 1292.627705,1846.072896"/>
    <poly id="1211678651" type="building" color="255,230,230" fill="1" layer="-1.00" shape="1118.797397,2083.979653 1124.691712,2074.982488 1118.580798,2071.015217 1112.686486,2080.012386 1118.797397,2083.979653"/>
    <poly id="1211678652" type="building" color="255,230,230" fill="1" layer="-1.00" shape="1094.882460,2093.693775 1110.548663,2068.914630 1092.636668,2057.692729 1076.961220,2082.472079 1094.882460,2093.693775"/>
    <poly id="1211678656" type="building" color="255,230,230" fill="1" layer="-1.00" shape="1242.593656,2225.487187 1248.372316,2215.271973 1227.625253,2203.648416 1221.846606,2213.863643 1242.593656,2225.487187"/>