<?xml version="1.0" encoding="UTF-8"?>

<!-- generated on 2026-06-08 16:18:16 by Eclipse SUMO duarouter Version v1_21_0+1815-57e42d61b7c
<duarouterConfiguration xmlns:xsi="http://www.w3.org/2001/XMLSchema-instance" xsi:noNamespaceSchemaLocation="http://sumo.dlr.de/xsd/duarouterConfiguration.xsd">

    <input>
        <net-file value="faisal.net.xml"/>
        <route-files value="first47.trips.xml"/>
    </input>

    <output>
        <output-file value="faisal.rou.xml"/>
    </output>

</duarouterConfiguration>
-->

<routes xmlns:xsi="http://www.w3.org/2001/XMLSchema-instance" xsi:noNamespaceSchemaLocation="http://sumo.dlr.de/xsd/routes_file.xsd">
    <vehicle id="0" depart="0.00">
        <route edges="23328202#2 23328202#3 23328106#0 23328106#1 23328106#2 23328106#3 23328106#4 23328106#5 730464138 730464139#0 730464139#1 730464139#2 730464139#3 878725381 878725380 -1375208386 -1375179568#2 -1375179568#1 -1375179568#0 1375208394 1375208391#0 1375208391#1 1375208391#2 844060959 -8677856#2 22999220 -22999028#2 -22999028#1 -22999028#0 -1042686456#9 -1042686456#8 -1042686456#7 -1042686456#6 -1042686456#5 -1042686456#4 -1042686456#3 -1042686456#2 -1042686456#1 -1042686456#0 -1042686457#5 -1042686457#4 -1042686457#3 -1042686457#2 -1042686457#1"/>
    </vehicle>
    <vehicle id="1" depart="1.00">
        <route edges="-23636068#2 -23636068#1 -23636068#0 23636057#0 23636057#1 23636057#2 23636057#3 23636057#4 23636057#5 23636057#6 23636057#7 -307558360#5 -307558360#4 -23553069"/>
    </vehicle>
    <vehicle id="2" depart="2.00">
        <route edges="23553033#2 -23553027#1 23553029#0 23553029#1 -23553074#8 23328106#5 730464138 730464139#0 730464139#1 730464139#2 129197829#1 129197829#2 129197829#3 -23552929 23552930#2 23552930#3 23552930#4 23552930#5"/>
    </vehicle>
    <vehicle id="3" depart="3.00">
        <route edges="23760035#0 23760035#1 -23691528 16786839#4 23328319#0 730464139#1 730464139#2 730464139#3 878725381 878725380 -1375208386 -1375179568#2 -1375179568#1 -1375179568#0 1375208394 1375208391#0 1375208391#1 1375208391#2 844060959 -8677856#2 22999220 22999028#3 22999028#4 22999028#5 22999028#6 22999028#7 22999028#8 22999028#9 1042686455#0 1042686455#1 1042686455#2 1042686455#3 22999025#4 22999038#0 22999038#1 -22999031#2"/>
    </vehicle>
    <vehicle id="4" depart="4.00">
        <route edges="1042686456#4 1042686456#5 1042686456#6 1042686456#7 1042686456#8 1042686456#9 22999028#0 22999028#1 22999028#2 -22999028#2 -22999028#1 -22999028#0 -1042686456#9 -1042686456#8 -1042686456#7 -1042686456#6 -1042686456#5 -1042686456#4 -1042686456#3 -1042686456#2 -1042686456#1 -1042686456#0 -1042686457#5"/>
    </vehicle>
    <vehicle id="5" depart="5.00">
        <route edges="-23553074#0 23553074#0 23553074#1 23553074#2 23553074#3 23553074#4 23553074#5 23553074#6 23553074#7 23328106#5 730464138 730464139#0 730464139#1 730464139#2 730464139#3 878725381 878725380 -1375208386 -1375179568#2 -1375179568#1 -1375179568#0 1375208394 1375208391#0 159215903#0 159215903#1 159215903#2"/>
    </vehicle>
    <vehicle id="6" depart="6.00">
        <route edges="-1042686457#2 -1042686457#1 -1042686457#0 -1042686454#2 -1042686454#1 -1042686454#0 22999025#3 -1042686455#3 -1042686455#2 -1042686455#1 -1042686455#0 -22999028#9 -22999028#8 -22999028#7 -22999028#6 -22999028#5 -22999028#4 -22999028#3 -22999028#2 22999218 8677856#1 8677856#2 844060960 159215895#0 159215895#1 159215895#2 1375208393 1375179568#0 1375179568#1 1375179568#2 878725378 878725379 16786839#0 16786839#1 16786839#2 16786839#3 16786839#4 16786839#5 16786839#6 16786839#7 16786839#8 730464136 730464137#0 730464137#1 730464137#2 730464137#3 -23759492#2 -23759492#1 -23759492#0 -23553025#6"/>
    </vehicle>
    <vehicle id="8" depart="8.00">
        <route edges="-23553074#2 23553074#2 23553074#3 23553074#4 23553074#5 23553074#6 23553074#7 23328106#5 730464138 730464139#0 730464139#1 730464139#2 730464139#3 878725381 878725380 -1375208386 -1375179568#2 -1375179568#1 -1375179568#0 1375208394 1375208391#0 1375208391#1 1375208391#2 844060959 -8677856#2 22999220 22999028#3 22999028#4 22999028#5 22999028#6 22999028#7 22999028#8"/>
    </vehicle>
    <vehicle id="9" depart="9.00">
        <route edges="23691516#0 23691516#1 23691516#2 23691516#3 23691516#4 23553074#5 23553074#6 23553074#7 23328106#5 730464138 730464139#0 730464139#1 730464139#2 730464139#3 878725381 878725380 -1375208386 -1375179568#2 -1375179568#1 -1375179568#0 1375208394 1375208391#0 1375208391#1 1375208391#2 844060959 -8677856#2 22999220 -22999028#2 -22999028#1 -22999028#0 -1042686456#9 -1042686456#8 -1042686456#7 -1042686456#6 -1042686456#5 -1042686456#4 -1042686456#3 -1042686456#2 -1042686456#1 -1042686456#0 -1042686457#5 -1042686457#4 -1042686457#3 -1042686457#2 -1042686457#1 -1042686457#0 -1042686454#2"/>
    </vehicle>
    <vehicle id="10" depart="10.00">
        <route edges="23636068#2 23636068#3 23328077#0 23635863#0 23635863#1 23635863#2 -23636057#1 -23636057#0 -23328073 -23328103#0 23553074#3 23553074#4 23553074#5 23553074#6 23553074#7 23328106#5 730464138 730464139#0 730464139#1 730464139#2 129197829#1 129197829#2 129197829#3 129197829#4 129197829#5 129197829#6 129197829#7 129197829#8 23552952#0 23552952#1 23552952#2"/>
    </vehicle>
    <vehicle id="11" depart="11.00">
        <route edges="-23759450#2 -23759450#1 -23759450#0 -23552925#8 -23552925#7 -23552925#6 -23552925#5 -23552925#4 -23552925#3 -23552925#2 23552954#0 23552954#1 23552954#2 23552954#3 23552954#4 23759003 -23552930#9"/>
    </vehicle>
    <vehicle id="12" depart="12.00">
        <route edges="730464139#1 730464139#2 129197829#1 129197829#2 129197829#3 129197829#4 129197829#5 129197829#6 -23552938#1 -23552938#0 23552925#0 23552925#1 23552925#2 23552925#3 23552925#4 23552925#5 23552925#6 23552925#7 -23759196#4 -23759196#3 -23759196#2 -23691570#1 -23759116"/>
    </vehicle>
    <vehicle id="13" depart="13.00">
        <route edges="-23325923#1"/>
    </vehicle>
    <vehicle id="14" depart="14.00">
        <route edges="23758999#2 -23552952#2 -23552952#1 -23552952#0 -129197829#8 -129197829#7 -129197829#6 -129197829#5 -129197829#4 -129197829#3 -129197829#2 -129197829#1 730464139#3 878725381 878725380 159215900#0 -745207719 -23325923#7 -23325923#6 -23325923#5 -23325923#4 -23325923#3 -23325923#2 -23325923#1 -23325923#0 23325923#0 23325923#1"/>
    </vehicle>
    <vehicle id="15" depart="15.00">
        <route edges="23636068#3 23328077#0 23635863#0 23635863#1 23635863#2 -23636057#1 -23636057#0 -23328073 -23328103#0 23553074#3 23553074#4 23553074#5 23553074#6 23553074#7 23553074#8 -23553029#1 23553029#1"/>
    </vehicle>
    <vehicle id="16" depart="16.00">
        <route edges="21059669#0 21059669#1 9664635#0 9664635#1 9664635#2 9664635#3 9666442#1 9666442#2 9666442#3 1375208391#2 1375208395 159215895#0 159215907 809715979#1"/>
    </vehicle>
    <vehicle id="17" depart="17.00">
        <route edges="-307558360#3 -307558360#2 -307558360#1 -307558360#0 23328041#0 23328041#1 23553074#0 23553074#1 23553074#2 23553074#3 23553074#4 23553074#5 23553074#6 23553074#7 23328106#5 730464138 730464139#0 730464139#1 730464139#2 730464139#3 878725381 878725380 -1375208386 -1375179568#2 -1375179568#1 -1375179568#0 1375208394 1375208391#0 159215903#0 159215903#1 159215903#2 159215903#3 159215903#4 159215903#5 159215903#6 21059706#4 21059706#5 21059706#6"/>
    </vehicle>
    <vehicle id="18" depart="18.00">
        <route edges="23691567#2 -23759000#0 -23552952#0 -129197829#8 -129197829#7 -129197829#6 -129197829#5 -129197829#4 -129197829#3 -129197829#2 16786839#1 16786839#2 16786839#3 16786839#4 16786839#5 16786839#6 16786839#7 16786839#8 730464136 730464137#0 -23553074#8 -23553074#7 -23553074#6 -23553074#5 -23553074#4 -23553074#3 -23553074#2 -23553074#1 -23553074#0 23328041#2"/>
    </vehicle>
    <vehicle id="19" depart="19.00">
        <route edges="23759160#1 -23552930#2 23552929 -129197829#3 -129197829#2 -129197829#1 730464139#3 878725381 878725380 -1375208386 -1375179568#2 -1375179568#1 -1375179568#0 1375208394 1375208391#0 1375208391#1 1375208391#2 844060959 -8677856#2 22999220 22999028#3 22999028#4 22999028#5 22999028#6 22999028#7 22999028#8 22999028#9 1042686455#0 1042686455#1 1042686455#2 1042686455#3 22999025#4 22999025#5 22999025#6 22999025#7"/>
    </vehicle>
    <vehicle id="20" depart="20.00">
        <route edges="23552954#4 23552954#5 -23552952#1 -23552952#0 -129197829#8 -129197829#7 -129197829#6 -129197829#5 -129197829#4 -129197829#3 -129197829#2 -129197829#1 730464139#3 878725381 878725380 -1375208386 -1375179568#2 -1375179568#1"/>
    </vehicle>
    <vehicle id="21" depart="21.00">
        <route edges="-23553074#8 -23553074#7 -23553074#6 -23553074#5 -23691516#4 -23691516#3 -23691516#2 -23691516#1 -23691516#0"/>
    </vehicle>
    <vehicle id="22" depart="22.00">
        <route edges="-22999028#7 -22999028#6 -22999028#5 -22999028#4 -22999028#3 -22999028#2 22999218 8677856#1 8677856#2 844060960 159215895#0 159215895#1 159215895#2 1375208393 1375179568#0 1375179568#1 1375179568#2 878725378 878725379 16786839#0 16786839#1 16786839#2 16786839#3 16786839#4 16786839#5 16786839#6 16786839#7 16786839#8 730464136 730464137#0 -23553074#8 -23553074#7 -23553074#6"/>
    </vehicle>
    <vehicle id="23" depart="23.00">
        <route edges="-23328041#0 307558360#0 307558360#1 307558360#2 307558360#3 307558360#4 307558360#5 -23636057#7 -23636057#6 -23636057#5 -23636057#4"/>
    </vehicle>
    <vehicle id="24" depart="24.00">
        <route edges="23328106#5 730464138 730464139#0 730464139#1 730464139#2 129197829#1 129197829#2 129197829#3 129197829#4 129197829#5 129197829#6 -23552938#1 -23552938#0 23552925#0 23552925#1 23552925#2 23552925#3 23552925#4 23552925#5 23552925#6 23552925#7 23552925#8 23759450#0 23759450#1 23759450#2 -23759658#1 -23759658#0 -23759748#1"/>
    </vehicle>
    <vehicle id="25" depart="25.00">
        <route edges="-263788117#1 -263788117#0 263788117#0 263788117#1 -158535056#1 -158535056#0 16787016#2 23759643 23553025#6 23759492#0 23759492#1 23691648 -23553032#1"/>
    </vehicle>
    <vehicle id="26" depart="26.00">
        <route edges="-23636057#3 -23636057#2 -23636057#1 -23636057#0 -23328073 -23328103#0 23553074#3 23553074#4 23553074#5 23553074#6 23553074#7 23328106#5 730464138 730464139#0 730464139#1 730464139#2 730464139#3 878725381 878725380 159215900#0 -745207719 -23325923#7 -23325923#6 -23325923#5 -23325923#4 -23325923#3 -23325923#2 723544503#0 723544503#1"/>
    </vehicle>
    <vehicle id="27" depart="27.00">
        <route edges="23328327#1 23328327#2 23328327#3 -23328327#3 -23328327#2 -23328327#1 -23328327#0 -23328319#1 730464139#1 730464139#2 730464139#3 878725381 878725380 159215900#0 -745207719 -23325923#7 -23325923#6 -23325923#5 23325923#5"/>
    </vehicle>
    <vehicle id="28" depart="28.00">
        <route edges="-23552952#4 -23552952#3 -23552952#2 -23552952#1 -23552952#0 -129197829#8 -129197829#7 -129197829#6 -129197829#5 -129197829#4 -129197829#3 -129197829#2 16786839#1 16786839#2 16786839#3 16786839#4 16786839#5 16786839#6 16786839#7 16786839#8 730464136 730464137#0 -23553029#1 23553029#1"/>
    </vehicle>
    <vehicle id="29" depart="29.00">
        <route edges="-23552948#1 23552946#1 23766918#0 23766918#1 -23766918#1"/>
    </vehicle>
    <vehicle id="30" depart="30.00">
        <route edges="9664635#1 9664635#2 9664635#3 9666442#1 9666442#2 9666442#3 1375208391#2 1375208395 159215895#0 159215895#1 159215895#2 1375208393 1375179568#0 1375179568#1 1375179568#2 878725378 878725379 16786839#0 16786839#1 16786839#2 16786839#3 16786839#4 16786839#5 16786839#6 16786839#7 16786839#8 730464136 730464137#0 730464137#1 730464137#2 730464137#3 730464137#4 16787016#0 16787016#1 158535056#0 23328202#2"/>
    </vehicle>
    <vehicle id="32" depart="32.00">
        <route edges="23691666#1 -23691666#1 23553025#2 23553025#3 23553025#4 23553025#5 23553025#6 23759492#0 23759492#1 23759492#2 730464137#4 1375179570 23328202#3 23328106#0 23328106#1 23328106#2 23328106#3 23328106#4 23328106#5 730464138 730464139#0 730464139#1 730464139#2 730464139#3 878725381 878725380 -1375208386 -1375179568#2 -23620937#1 -23620937#0 -1158044078 -23620944#2 -23620962#1 23620949#1"/>
    </vehicle>
    <vehicle id="33" depart="33.00">
        <route edges="-23553087 23553074#1 23553074#2 23553074#3 23553074#4 23553074#5 23553074#6 23553074#7 23328106#5 730464138 730464139#0 730464139#1 730464139#2 -129197829#0"/>
    </vehicle>
    <vehicle id="34" depart="34.00">
        <route edges="-23758999#1 -23758999#0 -23552925#3 -23552925#2 -23552925#1 -23552925#0 23552938#0 23552938#1 -129197829#6 -129197829#5 -129197829#4 -129197829#3 -129197829#2 16786839#1 16786839#2 16786839#3 16786839#4 16786839#5 16786839#6 16786839#7 16786839#8 730464136 730464137#0 -23553074#8 -23553074#7 -23553074#6 -23553074#5 -23553074#4 -23553074#3 23328103#0 23328073 23636057#0 23636057#1 -23635863#2 -23635863#1"/>
    </vehicle>
    <vehicle id="35" depart="35.00">
        <route edges="-23553033#3 -23553033#2 -23553033#1 -23553028#1 23553029#1 -23553074#8 23328106#5 730464138 730464139#0 730464139#1 730464139#2 730464139#3 878725381 878725380 159215900#0 -745207719 -23325923#7 -23325923#6 -23325923#5 -23325923#4 -23325923#3 723544507#0 723544507#1"/>
    </vehicle>
    <vehicle id="36" depart="36.00">
        <route edges="23759603#0 23553025#1 23553025#2 23553025#3 23553025#4 23553025#5 23553025#6 23759492#0 23759492#1 23759492#2 730464137#4 1375179570 23328202#3 23328106#0 23328106#1 23328106#2 23328106#3 23328106#4 23328106#5 730464138 730464139#0 730464139#1 730464139#2 129197829#1 16786839#1 16786839#2 -23691613"/>
    </vehicle>
    <vehicle id="37" depart="37.00">
        <route edges="23552925#3 -23552925#3 -23552925#2 -23552925#1 -23552925#0 23552938#0 23552938#1 -129197829#6 -129197829#5 -129197829#4 -129197829#3 -129197829#2 -129197829#1 730464139#3 878725381 878725380 159215900#0 -745207719 -23325923#7 -23325923#6 -23325923#5 -23325923#4 -23325923#3 723544507#0 -723544504#0 -723544503#0"/>
    </vehicle>
    <vehicle id="39" depart="39.00">
        <route edges="-23636057#1 -23636057#0 -23328073 -23328103#0 23553074#3 23553074#4 23553074#5 23553074#6 23553074#7 23328106#5 730464138 730464139#0 730464139#1 730464139#2 730464139#3 878725381 878725380 -1375208386 -1375179568#2 -23620937#1 -23620937#0"/>
    </vehicle>
    <vehicle id="41" depart="41.00">
        <route edges="22999028#9 1042686455#0 1042686455#1 1042686455#2 1042686455#3 -1042686455#3 -1042686455#2 -1042686455#1 -1042686455#0 -22999028#9 -22999028#8 -22999028#7 -22999028#6 -22999028#5 -22999028#4 -22999028#3 -22999028#2 22999218 8677856#1 8677856#2 844060960 159215895#0 159215895#1 159215895#2 1375208393 1375179568#0 1375179568#1 1375179568#2 878725378 878725379 16786839#0 129197829#2 129197829#3 129197829#4 129197829#5 129197829#6 -23552938#1 -23552938#0 23552925#0 23552925#1 23552925#2 -23759139#1 23766918#0 23766918#1"/>
    </vehicle>
    <vehicle id="42" depart="42.00">
        <route edges="-745207718 -159215900#1 -159215900#0 -1375208386 878725378 878725379 16786839#0 16786839#1 16786839#2 16786839#3 16786839#4 16786839#5 16786839#6 16786839#7 16786839#8 730464136 730464137#0 -23553074#8 -23553074#7 -23553074#6 -23553074#5 -23553074#4 -23553074#3 -23553074#2 -23553074#1 -23553074#0 23328041#2 23636068#0 23636068#1 23636068#2 23636068#3 23328077#0 23328077#1 -23553045"/>
    </vehicle>
    <vehicle id="43" depart="43.00">
        <route edges="9666442#1 9666442#2 28953035 159215903#3 159215903#4 159215903#5 159215903#6"/>
    </vehicle>
    <vehicle id="44" depart="44.00">
        <route edges="-22999077#1 -22999077#0 22999077#0 22999077#1 22999025#2 22999025#3 -1042686455#3 -1042686455#2 -1042686455#1 -1042686455#0 -22999028#9 -22999028#8 -22999028#7 -22999028#6 -22999028#5 -22999028#4 -22999028#3 -22999028#2 22999218 8677856#1 8677856#2 844060960 159215895#0 159215895#1 159215895#2 1375208393 1375179568#0 1375179568#1 1375179568#2 1375208386 -1375208386 -1375179568#2"/>
    </vehicle>
    <vehicle id="45" depart="45.00">
        <route edges="-23328077#4 23553060 -23636057#5 -23636057#4 -23636057#3 23328087#0 23328087#1"/>
    </vehicle>
    <vehicle id="46" depart="46.00">
        <route edges="23635933 -23636057#0 -23328073 -23328103#0 23553074#3 23553074#4 23553074#5 23553074#6 23553074#7 23328106#5 730464138 730464139#0 730464139#1 730464139#2 730464139#3 878725381 878725380 -1375208386 -1375179568#2 -1375179568#1 -1375179568#0 1375208394 1375208391#0 1375208391#1 1375208391#2 844060959 -8677856#2 22999220 22999028#3 22999028#4 22999028#5 22999028#6 22999028#7 22999028#8 22999028#9 1042686455#0"/>
    </vehicle>
    <vehicle id="47" depart="47.00">
        <route edges="-22999025#2 22999025#2 22999025#3 -1042686455#3 -1042686455#2 -1042686455#1 -1042686455#0 -22999028#9 -22999028#8 -22999028#7 -22999028#6 -22999028#5 -22999028#4 -22999028#3 -22999028#2 22999218 8677856#1 8677856#2 844060960 159215895#0 159215895#1 159215895#2 1375208393 1375179568#0 1375179568#1 1375179568#2 878725378 878725379 16786839#0 16786839#1 16786839#2 16786839#3 16786839#4 16786839#5 16786839#6 16786839#7 16786839#8 730464136 730464137#0 730464137#1 730464137#2 730464137#3 730464137#4 16787016#0 16787016#1 158535056#0 158535056#1 -263788117#1"/>
    </vehicle>
    <vehicle id="48" depart="48.00">
        <route edges="9666442#0 9666442#1 9666442#2 9666442#3 1375208391#2 1375208395 159215895#0 159215895#1 159215895#2 1375208393 1375179568#0 1375179568#1 1375179568#2 878725378 878725379 16786839#0 16786839#1 16786839#2 16786839#3 16786839#4 16786839#5 16786839#6 16786839#7 16786839#8 730464136 730464137#0 730464137#1 730464137#2 730464137#3 730464137#4 16787016#0 16787016#1 16787016#2 16787016#3 16787016#4 16787016#5"/>
    </vehicle>
    <vehicle id="50" depart="50.00">
        <route edges="-1042686455#3 -1042686455#2 -1042686455#1 -1042686455#0 -22999028#9 -22999028#8 -22999028#7 -22999028#6 -22999028#5 -22999028#4 -22999028#3 -22999028#2 22999218 8677856#1 8677856#2 844060960 159215895#0 159215895#1 159215895#2 1375208393 1375179568#0 1375179568#1 1375179568#2 878725378 878725379 16786839#0 16786839#1 16786839#2 16786839#3 16786839#4 16786839#5 16786839#6 16786839#7 16786839#8 730464136 730464137#0 730464137#1 730464137#2 730464137#3 730464137#4 16787016#0 16787016#1 16787016#2 16787016#3 16787016#4 16787016#5 -23691666#1 23553025#2"/>
    </vehicle>
    <vehicle id="52" depart="52.00">
        <route edges="-23636057#3 -23636057#2 -23636057#1 -23636057#0 -23328073 23328103#1 23328103#2 16786932#1 1375179569#0 1375179569#1 1375179569#2 1375179570 23328202#3"/>
    </vehicle>
</routes>
