<configuration>
    <input>
        <net-file value="faisal.net.xml"/>
        <route-files value="faisal.rou.xml"/>
    </input>

    <time>
        <begin value="0"/>
        <end value="1200"/>
    </time>
</configuration>